Version 4
SHEET 1 1128 680
WIRE 160 -208 96 -208
WIRE 288 -208 224 -208
WIRE 96 -64 96 -208
WIRE 160 -64 96 -64
WIRE 288 -64 288 -208
WIRE 288 -64 240 -64
WIRE 400 -64 288 -64
WIRE 560 -64 480 -64
WIRE -192 80 -336 80
WIRE -32 80 -112 80
WIRE 96 80 96 -64
WIRE 96 80 48 80
WIRE 192 80 96 80
WIRE 288 80 288 -64
WIRE 288 80 272 80
WIRE 400 80 288 80
WIRE 560 80 560 -64
WIRE 560 80 480 80
WIRE 752 80 560 80
WIRE 1056 80 832 80
WIRE 1056 144 1056 80
WIRE -336 176 -336 80
WIRE -336 352 -336 256
WIRE 1056 352 1056 208
FLAG -336 352 0
FLAG 1056 352 0
SYMBOL voltage -336 160 R0
WINDOW 123 0 0 Left 0
WINDOW 39 0 0 Left 0
SYMATTR InstName V1
SYMATTR Value PULSE(0 15 1u 50n 50n 5u)
SYMBOL res -208 96 R270
WINDOW 0 32 56 VTop 2
WINDOW 3 0 56 VBottom 2
SYMATTR InstName R1
SYMATTR Value 0.4
SYMBOL ind -48 96 R270
WINDOW 0 32 56 VTop 2
WINDOW 3 5 56 VBottom 2
SYMATTR InstName L1
SYMATTR Value 20n
SYMATTR SpiceLine Rser=2
SYMBOL res 288 64 R90
WINDOW 0 0 56 VBottom 2
WINDOW 3 32 56 VTop 2
SYMATTR InstName R2
SYMATTR Value 15
SYMBOL ind 144 -48 R270
WINDOW 0 32 56 VTop 2
WINDOW 3 5 56 VBottom 2
SYMATTR InstName L2
SYMATTR Value {Lfb1}
SYMBOL ind 384 -48 R270
WINDOW 0 32 56 VTop 2
WINDOW 3 5 56 VBottom 2
SYMATTR InstName L3
SYMATTR Value {Lfb2}
SYMBOL res 496 64 R90
WINDOW 0 0 56 VBottom 2
WINDOW 3 32 56 VTop 2
SYMATTR InstName 35
SYMATTR Value 50
SYMBOL res 848 64 R90
WINDOW 0 0 56 VBottom 2
WINDOW 3 32 56 VTop 2
SYMATTR InstName R4
SYMATTR Value {R}
SYMBOL cap 1040 144 R0
SYMATTR InstName C1
SYMATTR Value 47n
SYMBOL cap 224 -224 R90
WINDOW 0 0 32 VBottom 2
WINDOW 3 32 32 VTop 2
SYMATTR InstName C2
SYMATTR Value 10p
TEXT -344 -120 Left 2 !.tran 8u
TEXT -344 -152 Left 2 !.param Lfb=82n*R+677n
TEXT -344 -88 Left 2 !.param Lfb1=0.9*Lfb Lfb2=0.1*Lfb
TEXT -352 -280 Left 2 !*.step param Lfb list 0.1u 0.3u 0.5u 0.7u 0.9u 1.1u 1.3u 1.5u
TEXT -336 -192 Left 2 !.param R=1.5
