Version 4
SHEET 1 920 680
WIRE 352 -48 304 -48
WIRE 480 -48 416 -48
WIRE 176 64 144 64
WIRE 304 64 304 -48
WIRE 304 64 256 64
WIRE 352 64 304 64
WIRE 480 64 480 -48
WIRE 480 64 432 64
WIRE 32 160 -192 160
WIRE 144 160 144 64
WIRE 144 160 112 160
WIRE 176 160 144 160
WIRE 304 160 304 64
WIRE 304 160 256 160
WIRE 352 160 304 160
WIRE 480 160 480 64
WIRE 480 160 432 160
WIRE 848 160 480 160
WIRE -192 192 -192 160
WIRE -192 320 -192 272
WIRE 848 320 848 160
WIRE 848 320 -192 320
WIRE -192 336 -192 320
FLAG -192 336 0
SYMBOL res 272 48 R90
WINDOW 0 0 56 VBottom 2
WINDOW 3 32 56 VTop 2
SYMATTR InstName R2
SYMATTR Value 5
SYMBOL res 448 48 R90
WINDOW 0 0 56 VBottom 2
WINDOW 3 32 56 VTop 2
SYMATTR InstName R3
SYMATTR Value 55
SYMBOL ind 160 176 R270
WINDOW 0 32 56 VTop 2
WINDOW 3 5 56 VBottom 2
SYMATTR InstName L1
SYMATTR Value 1µ
SYMBOL ind 336 176 R270
WINDOW 0 32 56 VTop 2
WINDOW 3 5 56 VBottom 2
SYMATTR InstName L2
SYMATTR Value 0.1µ
SYMBOL ind 16 176 R270
WINDOW 0 32 56 VTop 2
WINDOW 3 5 56 VBottom 2
SYMATTR InstName L3
SYMATTR Value 20n
SYMBOL current -192 272 R180
WINDOW 0 24 80 Left 2
WINDOW 3 24 0 Left 2
WINDOW 123 24 -28 Left 2
WINDOW 39 0 0 Left 0
SYMATTR InstName I1
SYMATTR Value ""
SYMATTR Value2 AC 1 0
SYMBOL cap 416 -64 R90
WINDOW 0 0 32 VBottom 2
WINDOW 3 32 32 VTop 2
SYMATTR InstName C1
SYMATTR Value 5p
TEXT -226 360 Left 2 !.ac oct 100 0.5Meg 1000Meg
